Circuit: * C:\Users\USER\Desktop\projects\silvaback-thermostat\hardware\simulation\mosfet-battery-proctection.asc

.OP point found by inspection.

Date: Sat Aug  5 14:11:51 2023
Total elapsed time: 0.086 seconds.

tnom = 27
temp = 27
method = modified trap
totiter = 2172
traniter = 2172
tranpoints = 1085
accept = 1071
rejected = 14
matrix size = 14
fillins = 0
solver = Normal
Avg thread counts: 1.1/1.3/1.3/1.1
Matrix Compiler1: 724 bytes object code size  0.5/0.4/[0.3]
Matrix Compiler2: 1.04 KB object code size  0.3/0.5/[0.2]

